Circuit: * C:\Users\navni\OneDrive - UNSW\S1_SIGNALS\Lab 2\sim\hpFO.asc


Date: Fri May 05 22:18:05 2023
Total elapsed time: 0.019 seconds.

tnom = 27
temp = 27
method = trap
totiter = 0
traniter = 0
tranpoints = 0
accept = 0
rejected = 0
matrix size = 3
fillins = 0
solver = Normal

