Circuit: * C:\Users\navni\OneDrive - UNSW\S1_SIGNALS\Lab 2\sim\lpSK.asc

Direct Newton iteration for .op point succeeded.

Date: Mon May 08 00:07:33 2023
Total elapsed time: 0.017 seconds.

tnom = 27
temp = 27
method = trap
totiter = 11
traniter = 0
tranpoints = 0
accept = 0
rejected = 0
matrix size = 39
fillins = 40
solver = Normal
Matrix Compiler1:     208 opcodes
Matrix Compiler2: 3.82 KB object code size
