Circuit: * C:\Users\navni\OneDrive - UNSW\S1_SIGNALS\Lab 2\sim\lpSO.asc

Direct Newton iteration for .op point succeeded.

Date: Mon May 08 00:30:26 2023
Total elapsed time: 0.038 seconds.

tnom = 27
temp = 27
method = trap
totiter = 11
traniter = 0
tranpoints = 0
accept = 0
rejected = 0
matrix size = 40
fillins = 45
solver = Normal
Matrix Compiler1:     232 opcodes
Matrix Compiler2: 4.00 KB object code size
